
  CDK     04282223293D

  1  0  0  0  0  0  0  0  0  0999 V2000
   -0.3534    2.1044   -0.7339 O   0  0  0  0  0  0  0  0  0  0  0  0
M  END
> <ATTACHMENT_POINTS>
1#Xlig:1:SINGLE:-0.1753%0.0948%-0.4464,bridge:0:SINGLE:-0.5345%2.7646%0.4801 

> <VertexJson>
{
  "lstAPs": [
    {
      "id": 612,
      "atomPositionNumber": 0,
      "atomPositionNumberInMol": -1,
      "apClass": {
        "rule": "Xlig",
        "subClass": 1,
        "bndTyp": "SINGLE"
      },
      "dirVec": {
        "x": -0.1753,
        "y": 0.0948,
        "z": -0.4464
      }
    },
    {
      "id": 829,
      "atomPositionNumber": 0,
      "atomPositionNumberInMol": -1,
      "apClass": {
        "rule": "bridge",
        "subClass": 0,
        "bndTyp": "SINGLE"
      },
      "dirVec": {
        "x": -0.5345,
        "y": 2.7646,
        "z": 0.48009999999999997
      }
    }
  ],
  "lstSymAPs": [],
  "mol": {
    "atoms": [
      {
        "elSymbol": "O",
        "p3d": {
          "x": -0.3534,
          "y": 2.1044,
          "z": -0.7339
        }
      }
    ],
    "bonds": []
  },
  "vertexId": -1,
  "buildingBlockId": -99,
  "buildingBlockType": "FRAGMENT",
  "isRCV": false,
  "properties": {
    "ATTACHMENT_POINTS": "1#Xlig:1:SINGLE:-0.1753%0.0948%-0.4464,bridge:0:SINGLE:-0.5345%2.7646%0.4801 "
  },
  "uniquefyingPropertyKeys": [],
  "allowedMutationTypes": [
    "DELETE",
    "EXTEND",
    "CHANGEBRANCH",
    "CHANGELINK",
    "ADDLINK",
    "DELETELINK",
    "DELETECHAIN"
  ],
  "vertexType": "MolecularFragment"
}

$$$$

  CDK     04282223293D

  1  0  0  0  0  0  0  0  0  0999 V2000
   -0.3267    2.3403   -1.0022 S   0  0  0  0  0  0  0  0  0  0  0  0
M  END
> <ATTACHMENT_POINTS>
1#Xlig:1:SINGLE:-0.1020%0.0185%-1.0265,bridge:0:SINGLE:-0.6260%2.4866%0.7805 

> <VertexJson>
{
  "lstAPs": [
    {
      "id": 611,
      "atomPositionNumber": 0,
      "atomPositionNumberInMol": -1,
      "apClass": {
        "rule": "Xlig",
        "subClass": 1,
        "bndTyp": "SINGLE"
      },
      "dirVec": {
        "x": -0.102,
        "y": 0.0185,
        "z": -1.0265
      }
    },
    {
      "id": 841,
      "atomPositionNumber": 0,
      "atomPositionNumberInMol": -1,
      "apClass": {
        "rule": "bridge",
        "subClass": 0,
        "bndTyp": "SINGLE"
      },
      "dirVec": {
        "x": -0.626,
        "y": 2.4866,
        "z": 0.7805
      }
    }
  ],
  "lstSymAPs": [],
  "mol": {
    "atoms": [
      {
        "elSymbol": "S",
        "p3d": {
          "x": -0.3267,
          "y": 2.3403,
          "z": -1.0022
        }
      }
    ],
    "bonds": []
  },
  "vertexId": -1,
  "buildingBlockId": -99,
  "buildingBlockType": "FRAGMENT",
  "isRCV": false,
  "properties": {
    "ATTACHMENT_POINTS": "1#Xlig:1:SINGLE:-0.1020%0.0185%-1.0265,bridge:0:SINGLE:-0.6260%2.4866%0.7805 "
  },
  "uniquefyingPropertyKeys": [],
  "allowedMutationTypes": [
    "DELETE",
    "EXTEND",
    "CHANGEBRANCH",
    "CHANGELINK",
    "ADDLINK",
    "DELETELINK",
    "DELETECHAIN"
  ],
  "vertexType": "MolecularFragment"
}

$$$$
